Version 4.1
SHEET 1 6724 2484
WIRE 5728 -1072 5728 -1136
WIRE 5728 -1072 5616 -1072
WIRE 5840 -1072 5728 -1072
WIRE 5616 -1008 5616 -1072
WIRE 5840 -1008 5840 -1072
WIRE 5040 -992 5040 -1056
WIRE 5040 -992 4928 -992
WIRE 5152 -992 5040 -992
WIRE 5264 -992 5152 -992
WIRE 4928 -928 4928 -992
WIRE 5152 -928 5152 -992
WIRE 3584 -912 3584 -976
WIRE 3584 -912 3472 -912
WIRE 3696 -912 3584 -912
WIRE 5264 -912 5264 -992
WIRE 5840 -896 5840 -928
WIRE 6000 -896 5840 -896
WIRE 6352 -896 6064 -896
WIRE 5840 -864 5840 -896
WIRE 3472 -848 3472 -912
WIRE 3696 -848 3696 -912
WIRE -2816 -832 -2816 -896
WIRE -2816 -832 -2928 -832
WIRE -2704 -832 -2816 -832
WIRE 2896 -832 2896 -896
WIRE 2896 -832 2784 -832
WIRE 3008 -832 2896 -832
WIRE 3120 -832 3008 -832
WIRE 6352 -832 6352 -896
WIRE 5152 -816 5152 -848
WIRE 5264 -816 5264 -848
WIRE 5264 -816 5152 -816
WIRE 5408 -816 5264 -816
WIRE 5616 -816 5616 -928
WIRE 5616 -816 5472 -816
WIRE 5776 -816 5616 -816
WIRE 5152 -784 5152 -816
WIRE -2928 -768 -2928 -832
WIRE -2704 -768 -2704 -832
WIRE 2784 -768 2784 -832
WIRE 3008 -768 3008 -832
WIRE -3504 -752 -3504 -816
WIRE -3504 -752 -3616 -752
WIRE -3392 -752 -3504 -752
WIRE -3280 -752 -3392 -752
WIRE 3120 -752 3120 -832
WIRE 3696 -736 3696 -768
WIRE 3856 -736 3696 -736
WIRE 4000 -736 3920 -736
WIRE 4208 -736 4000 -736
WIRE 4576 -736 4496 -736
WIRE 4752 -736 4656 -736
WIRE 4928 -736 4928 -848
WIRE 4928 -736 4816 -736
WIRE 5088 -736 4928 -736
WIRE -704 -704 -704 -736
WIRE 3696 -704 3696 -736
WIRE 5840 -704 5840 -768
WIRE 5952 -704 5840 -704
WIRE 6352 -704 6352 -752
WIRE -3616 -688 -3616 -752
WIRE -3392 -688 -3392 -752
WIRE -4960 -672 -4960 -736
WIRE -4960 -672 -5072 -672
WIRE -4848 -672 -4960 -672
WIRE -3280 -672 -3280 -752
WIRE 4208 -672 4208 -736
WIRE 5616 -672 5616 -816
WIRE -2704 -656 -2704 -688
WIRE -2544 -656 -2704 -656
WIRE -2256 -656 -2480 -656
WIRE -2192 -656 -2256 -656
WIRE 3008 -656 3008 -688
WIRE 3120 -656 3120 -688
WIRE 3120 -656 3008 -656
WIRE 3264 -656 3120 -656
WIRE 3472 -656 3472 -768
WIRE 3472 -656 3328 -656
WIRE 3632 -656 3472 -656
WIRE 4496 -656 4496 -736
WIRE 5840 -656 5840 -704
WIRE 5952 -640 5952 -704
WIRE -2704 -624 -2704 -656
WIRE 3008 -624 3008 -656
WIRE -5072 -608 -5072 -672
WIRE -4848 -608 -4848 -672
WIRE 4928 -608 4928 -736
WIRE -5648 -592 -5648 -656
WIRE -5648 -592 -5760 -592
WIRE -5536 -592 -5648 -592
WIRE -5424 -592 -5536 -592
WIRE -2192 -592 -2192 -656
WIRE 5152 -592 5152 -688
WIRE -3392 -576 -3392 -608
WIRE -3280 -576 -3280 -608
WIRE -3280 -576 -3392 -576
WIRE -3136 -576 -3280 -576
WIRE -2928 -576 -2928 -688
WIRE -2928 -576 -3072 -576
WIRE -2768 -576 -2928 -576
WIRE 2432 -576 2352 -576
WIRE 2608 -576 2512 -576
WIRE 2784 -576 2784 -688
WIRE 2784 -576 2672 -576
WIRE 2944 -576 2784 -576
WIRE -3392 -544 -3392 -576
WIRE 3696 -544 3696 -608
WIRE 3808 -544 3696 -544
WIRE 4208 -544 4208 -592
WIRE 4496 -544 4496 -576
WIRE -5760 -528 -5760 -592
WIRE -5536 -528 -5536 -592
WIRE -5424 -512 -5424 -592
WIRE 3472 -512 3472 -656
WIRE 5616 -512 5616 -592
WIRE 5840 -512 5840 -576
WIRE 5952 -512 5952 -576
WIRE -4848 -496 -4848 -528
WIRE -4688 -496 -4848 -496
WIRE -4544 -496 -4624 -496
WIRE -4400 -496 -4544 -496
WIRE -4336 -496 -4400 -496
WIRE -3968 -496 -4048 -496
WIRE -3792 -496 -3888 -496
WIRE -3616 -496 -3616 -608
WIRE -3616 -496 -3728 -496
WIRE -3456 -496 -3616 -496
WIRE 2352 -496 2352 -576
WIRE 3696 -496 3696 -544
WIRE 3008 -480 3008 -528
WIRE 3216 -480 3008 -480
WIRE 3808 -480 3808 -544
WIRE -4848 -464 -4848 -496
WIRE -2704 -464 -2704 -528
WIRE -2592 -464 -2704 -464
WIRE -2192 -464 -2192 -512
WIRE 2784 -448 2784 -576
WIRE -4336 -432 -4336 -496
WIRE -2928 -432 -2928 -576
WIRE 3008 -432 3008 -480
WIRE 4928 -432 4928 -528
WIRE 5152 -432 5152 -512
WIRE -5536 -416 -5536 -448
WIRE -5424 -416 -5424 -448
WIRE -5424 -416 -5536 -416
WIRE -5280 -416 -5424 -416
WIRE -5072 -416 -5072 -528
WIRE -5072 -416 -5216 -416
WIRE -4912 -416 -5072 -416
WIRE -4048 -416 -4048 -496
WIRE -2704 -416 -2704 -464
WIRE -2592 -400 -2592 -464
WIRE -5536 -384 -5536 -416
WIRE 2352 -384 2352 -416
WIRE -3616 -368 -3616 -496
WIRE -3392 -352 -3392 -448
WIRE 3472 -352 3472 -432
WIRE 3696 -352 3696 -416
WIRE 3808 -352 3808 -416
WIRE -6112 -336 -6192 -336
WIRE -5936 -336 -6032 -336
WIRE -5760 -336 -5760 -448
WIRE -5760 -336 -5872 -336
WIRE -5600 -336 -5760 -336
WIRE -4848 -304 -4848 -368
WIRE -4736 -304 -4848 -304
WIRE -4336 -304 -4336 -352
WIRE -4048 -304 -4048 -336
WIRE 3008 -288 3008 -352
WIRE -5072 -272 -5072 -416
WIRE -2928 -272 -2928 -352
WIRE -2704 -272 -2704 -336
WIRE -2592 -272 -2592 -336
WIRE 2784 -272 2784 -368
WIRE -6192 -256 -6192 -336
WIRE -4848 -256 -4848 -304
WIRE -5536 -240 -5536 -288
WIRE -5328 -240 -5536 -240
WIRE -4736 -240 -4736 -304
WIRE -5760 -208 -5760 -336
WIRE -5536 -192 -5536 -240
WIRE -3616 -192 -3616 -288
WIRE -3392 -192 -3392 -272
WIRE -6192 -144 -6192 -176
WIRE -5072 -112 -5072 -192
WIRE -4848 -112 -4848 -176
WIRE -4736 -112 -4736 -176
WIRE 3216 -96 3216 -480
WIRE 3408 -96 3216 -96
WIRE 4000 -96 4000 -736
WIRE 4000 -96 3488 -96
WIRE -5536 -48 -5536 -112
WIRE -5760 -32 -5760 -128
WIRE -5328 144 -5328 -240
WIRE -5136 144 -5328 144
WIRE -4544 144 -4544 -496
WIRE -4544 144 -5056 144
WIRE -816 1072 -912 1072
WIRE -624 1072 -736 1072
WIRE -496 1072 -560 1072
WIRE -288 1072 -496 1072
WIRE -112 1072 -288 1072
WIRE -48 1072 -112 1072
WIRE 176 1072 16 1072
WIRE 336 1072 176 1072
WIRE 432 1072 336 1072
WIRE 544 1072 432 1072
WIRE 656 1072 608 1072
WIRE 816 1072 656 1072
WIRE 992 1072 816 1072
WIRE 1056 1072 992 1072
WIRE 1280 1072 1120 1072
WIRE 1456 1072 1280 1072
WIRE 1632 1072 1456 1072
WIRE 1824 1072 1696 1072
WIRE -496 1120 -496 1072
WIRE -288 1120 -288 1072
WIRE 816 1120 816 1072
WIRE 5664 1120 5664 1056
WIRE 5664 1120 5552 1120
WIRE 5776 1120 5664 1120
WIRE -112 1136 -112 1072
WIRE 992 1136 992 1072
WIRE -912 1152 -912 1072
WIRE 336 1152 336 1072
WIRE 656 1152 656 1072
WIRE 1456 1152 1456 1072
WIRE 1824 1152 1824 1072
WIRE 3680 1152 3680 1088
WIRE 3680 1152 3568 1152
WIRE 3792 1152 3680 1152
WIRE 176 1168 176 1072
WIRE 432 1168 432 1072
WIRE 1280 1168 1280 1072
WIRE 5552 1184 5552 1120
WIRE 5776 1184 5776 1120
WIRE 4976 1200 4976 1136
WIRE 4976 1200 4864 1200
WIRE 5088 1200 4976 1200
WIRE 5200 1200 5088 1200
WIRE -288 1216 -288 1200
WIRE 816 1216 816 1200
WIRE 3568 1216 3568 1152
WIRE 3792 1216 3792 1152
WIRE 2992 1232 2992 1168
WIRE 2992 1232 2880 1232
WIRE 3104 1232 2992 1232
WIRE 3216 1232 3104 1232
WIRE 4864 1264 4864 1200
WIRE 5088 1264 5088 1200
WIRE 5200 1280 5200 1200
WIRE -112 1296 -112 1200
WIRE -112 1296 -288 1296
WIRE 176 1296 176 1248
WIRE 176 1296 -112 1296
WIRE 992 1296 992 1200
WIRE 992 1296 816 1296
WIRE 1280 1296 1280 1248
WIRE 1280 1296 992 1296
WIRE 2880 1296 2880 1232
WIRE 3104 1296 3104 1232
WIRE 5776 1296 5776 1264
WIRE 5936 1296 5776 1296
WIRE 6288 1296 6000 1296
WIRE 3216 1312 3216 1232
WIRE -2080 1328 -2080 1264
WIRE -2080 1328 -2192 1328
WIRE -1968 1328 -2080 1328
WIRE 3792 1328 3792 1296
WIRE 3952 1328 3792 1328
WIRE 4160 1328 4016 1328
WIRE 4304 1328 4160 1328
WIRE 5776 1328 5776 1296
WIRE -912 1344 -912 1232
WIRE -496 1344 -496 1200
WIRE 992 1344 992 1296
WIRE 336 1360 336 1232
WIRE 432 1360 432 1232
WIRE 656 1360 656 1232
WIRE 1456 1360 1456 1232
WIRE 1824 1360 1824 1232
WIRE 3792 1360 3792 1328
WIRE 6288 1360 6288 1296
WIRE -112 1376 -112 1296
WIRE 16 1376 -112 1376
WIRE 5088 1376 5088 1344
WIRE 5200 1376 5200 1344
WIRE 5200 1376 5088 1376
WIRE 5344 1376 5200 1376
WIRE 5552 1376 5552 1264
WIRE 5552 1376 5408 1376
WIRE 5712 1376 5552 1376
WIRE -2192 1392 -2192 1328
WIRE -1968 1392 -1968 1328
WIRE 4304 1392 4304 1328
WIRE -2768 1408 -2768 1344
WIRE -2768 1408 -2880 1408
WIRE -2656 1408 -2768 1408
WIRE -2544 1408 -2656 1408
WIRE 3104 1408 3104 1376
WIRE 3216 1408 3216 1376
WIRE 3216 1408 3104 1408
WIRE 3360 1408 3216 1408
WIRE 3568 1408 3568 1296
WIRE 3568 1408 3424 1408
WIRE 3728 1408 3568 1408
WIRE 5088 1408 5088 1376
WIRE 3104 1440 3104 1408
WIRE -112 1456 -112 1376
WIRE 16 1456 16 1376
WIRE 4512 1456 4432 1456
WIRE 4688 1456 4592 1456
WIRE 4864 1456 4864 1344
WIRE 4864 1456 4752 1456
WIRE 5024 1456 4864 1456
WIRE -2880 1472 -2880 1408
WIRE -2656 1472 -2656 1408
WIRE 992 1472 992 1424
WIRE 1120 1472 992 1472
WIRE -2544 1488 -2544 1408
WIRE 2528 1488 2448 1488
WIRE 2704 1488 2608 1488
WIRE 2880 1488 2880 1376
WIRE 2880 1488 2768 1488
WIRE 3040 1488 2880 1488
WIRE 6288 1488 6288 1440
WIRE -1968 1504 -1968 1472
WIRE -1616 1504 -1968 1504
WIRE -1520 1504 -1552 1504
WIRE -1456 1504 -1520 1504
WIRE 5776 1504 5776 1424
WIRE 4304 1520 4304 1472
WIRE 5552 1520 5552 1376
WIRE -1968 1536 -1968 1504
WIRE 3792 1536 3792 1456
WIRE 4432 1536 4432 1456
WIRE 992 1552 992 1472
WIRE 1120 1552 1120 1472
WIRE 3568 1552 3568 1408
WIRE -1456 1568 -1456 1504
WIRE 2448 1568 2448 1488
WIRE -2656 1584 -2656 1552
WIRE -2544 1584 -2544 1552
WIRE -2544 1584 -2656 1584
WIRE -2496 1584 -2544 1584
WIRE -2192 1584 -2192 1472
WIRE -2192 1584 -2432 1584
WIRE -2032 1584 -2192 1584
WIRE -1520 1600 -1520 1504
WIRE -1520 1600 -1632 1600
WIRE -112 1600 -112 1536
WIRE 16 1600 16 1520
WIRE 3104 1600 3104 1536
WIRE 3104 1600 3024 1600
WIRE 4864 1600 4864 1456
WIRE -2656 1616 -2656 1584
WIRE 5088 1616 5088 1504
WIRE 2880 1632 2880 1488
WIRE 3104 1648 3104 1600
WIRE 4432 1648 4432 1616
WIRE -3232 1664 -3312 1664
WIRE -3056 1664 -3152 1664
WIRE -2880 1664 -2880 1552
WIRE -2880 1664 -2992 1664
WIRE -2720 1664 -2880 1664
WIRE 5776 1664 5776 1584
WIRE 5888 1664 5776 1664
WIRE -1456 1680 -1456 1648
WIRE -1456 1680 -1584 1680
WIRE 2448 1680 2448 1648
WIRE 5552 1680 5552 1600
WIRE -1456 1696 -1456 1680
WIRE 992 1696 992 1632
WIRE 1120 1696 1120 1616
WIRE 3792 1696 3792 1616
WIRE 3904 1696 3792 1696
WIRE -3616 1712 -3616 1664
WIRE -1968 1712 -1968 1632
WIRE 3568 1712 3568 1632
WIRE 5776 1712 5776 1664
WIRE -2192 1728 -2192 1584
WIRE 5888 1728 5888 1664
WIRE -3312 1744 -3312 1664
WIRE 3792 1744 3792 1696
WIRE 3904 1760 3904 1696
WIRE 4864 1760 4864 1680
WIRE 5088 1776 5088 1696
WIRE 5248 1776 5088 1776
WIRE 2880 1792 2880 1712
WIRE -2880 1808 -2880 1664
WIRE 3104 1808 3104 1728
WIRE 3264 1808 3104 1808
WIRE -1632 1824 -1632 1600
WIRE -1584 1824 -1584 1680
WIRE 5088 1840 5088 1776
WIRE -3616 1856 -3616 1792
WIRE 5248 1856 5248 1776
WIRE 5776 1856 5776 1792
WIRE 5888 1856 5888 1792
WIRE -1968 1872 -1968 1792
WIRE -1856 1872 -1968 1872
WIRE -1648 1872 -1696 1872
WIRE 3104 1872 3104 1808
WIRE -2192 1888 -2192 1808
WIRE 3264 1888 3264 1808
WIRE 3792 1888 3792 1824
WIRE 3904 1888 3904 1824
WIRE -2656 1920 -2656 1712
WIRE -2336 1920 -2656 1920
WIRE -1968 1920 -1968 1872
WIRE -1856 1936 -1856 1872
WIRE -2880 1968 -2880 1888
WIRE 5088 1984 5088 1920
WIRE 5248 1984 5248 1920
WIRE 3104 2016 3104 1952
WIRE 3264 2016 3264 1952
WIRE -1968 2064 -1968 2000
WIRE -1856 2064 -1856 2000
WIRE -3312 2080 -3312 1824
WIRE -2496 2128 -2656 2128
WIRE -2336 2128 -2336 1920
WIRE -1568 2128 -1568 1872
WIRE -1568 2128 -2336 2128
WIRE 3024 2128 3024 1600
WIRE 3424 2128 3024 2128
WIRE 3600 2128 3504 2128
WIRE 4160 2128 4160 1328
WIRE 4160 2128 3680 2128
WIRE -2496 2160 -2496 2128
WIRE -1696 2160 -1696 1872
WIRE -1696 2160 -2496 2160
WIRE -2656 2192 -2656 2128
WIRE -2496 2208 -2496 2160
WIRE -2656 2336 -2656 2272
WIRE -2496 2336 -2496 2272
FLAG -2656 2336 0
FLAG -2880 1968 0
FLAG -704 -704 0
FLAG -2768 1344 Vcc
IOPIN -2768 1344 In
FLAG -704 -816 Vcc
IOPIN -704 -816 In
FLAG -2496 2336 0
FLAG -3312 2080 0
FLAG -1968 2064 0
FLAG -2192 1888 0
FLAG -2080 1264 Vcc
IOPIN -2080 1264 In
FLAG -1456 1696 0
FLAG -912 1344 0
FLAG -496 1344 0
FLAG -112 1600 0
FLAG 16 1600 0
FLAG 336 1360 0
FLAG 656 1360 0
FLAG 992 1696 0
FLAG 1120 1696 0
FLAG 1456 1360 0
FLAG 1824 1360 0
FLAG -3616 1856 0
FLAG -1856 2064 0
FLAG 432 1360 0
FLAG 3104 2016 0
FLAG 2880 1792 0
FLAG 2992 1168 Vcc
IOPIN 2992 1168 In
FLAG 3264 2016 0
FLAG 2448 1680 0
FLAG 3792 1888 0
FLAG 3568 1712 0
FLAG 3680 1088 Vcc
IOPIN 3680 1088 In
FLAG 4304 1520 0
FLAG 3904 1888 0
FLAG 5088 1984 0
FLAG 4864 1760 0
FLAG 4976 1136 Vcc
IOPIN 4976 1136 In
FLAG 5248 1984 0
FLAG 4432 1648 0
FLAG 5776 1856 0
FLAG 5552 1680 0
FLAG 5664 1056 Vcc
IOPIN 5664 1056 In
FLAG 6288 1488 0
FLAG 5888 1856 0
FLAG 4496 -544 0
FLAG 5840 -512 0
FLAG 5616 -512 0
FLAG 5728 -1136 Vcc
IOPIN 5728 -1136 In
FLAG 6352 -704 0
FLAG 5952 -512 0
FLAG 4928 -432 0
FLAG 5040 -1056 Vcc
IOPIN 5040 -1056 In
FLAG 5152 -432 0
FLAG 2352 -384 0
FLAG 3696 -352 0
FLAG 3472 -352 0
FLAG 3584 -976 Vcc
IOPIN 3584 -976 In
FLAG 4208 -544 0
FLAG 3808 -352 0
FLAG 2784 -272 0
FLAG 2896 -896 Vcc
IOPIN 2896 -896 In
FLAG 3008 -288 0
FLAG -4048 -304 0
FLAG -2704 -272 0
FLAG -2928 -272 0
FLAG -2816 -896 Vcc
IOPIN -2816 -896 In
FLAG -2192 -464 0
FLAG -2592 -272 0
FLAG -2256 -656 Vo
FLAG -3616 -192 0
FLAG -3504 -816 Vcc
IOPIN -3504 -816 In
FLAG -3392 -192 0
FLAG -6192 -144 0
FLAG -4848 -112 0
FLAG -5072 -112 0
FLAG -4960 -736 Vcc
IOPIN -4960 -736 In
FLAG -4336 -304 0
FLAG -4736 -112 0
FLAG -4400 -496 Vor
FLAG -5760 -32 0
FLAG -5648 -656 Vcc
IOPIN -5648 -656 In
FLAG -5536 -48 0
SYMBOL npn -2720 1616 R0
SYMATTR InstName Q1
SYMATTR Value BC368HF
SYMBOL res -2672 1456 R0
SYMATTR InstName R1
SYMATTR Value 5500
SYMBOL res -2896 1456 R0
SYMATTR InstName R2
SYMATTR Value 167.6k
SYMBOL res -2896 1792 R0
SYMATTR InstName 18.17k
SYMATTR Value 19.5k
SYMBOL res -2672 2176 R0
SYMATTR InstName R4
SYMATTR Value 497
SYMBOL voltage -704 -832 R0
SYMATTR InstName V1
SYMATTR Value 12
SYMBOL cap -2512 2208 R0
SYMATTR InstName C1
SYMATTR Value 43µ
SYMBOL cap -2992 1648 R90
WINDOW 0 0 32 VBottom 2
WINDOW 3 32 32 VTop 2
SYMATTR InstName C3
SYMATTR Value 3µ
SYMBOL res -3136 1648 R90
WINDOW 0 0 56 VBottom 2
WINDOW 3 32 56 VTop 2
SYMATTR InstName R3
SYMATTR Value 50
SYMBOL voltage -3312 1728 R0
WINDOW 123 24 124 Left 2
WINDOW 39 0 0 Left 0
SYMATTR Value2 AC 1
SYMATTR InstName V2
SYMATTR Value ""
SYMBOL cap -2432 1568 R90
WINDOW 0 0 32 VBottom 2
WINDOW 3 32 32 VTop 2
SYMATTR InstName C2
SYMATTR Value 550n
SYMBOL npn -2032 1536 R0
SYMATTR InstName Q2
SYMATTR Value BC368HF
SYMBOL res -1984 1376 R0
SYMATTR InstName R6
SYMATTR Value 4000
SYMBOL res -2208 1376 R0
SYMATTR InstName R7
SYMATTR Value 106.6k
SYMBOL res -2208 1712 R0
SYMATTR InstName R8
SYMATTR Value 18.7k
SYMBOL res -1984 1904 R0
SYMATTR InstName R9
SYMATTR Value 62
SYMBOL res -1472 1552 R0
SYMATTR InstName R5
SYMATTR Value 3.9k
SYMBOL cap -1552 1488 R90
WINDOW 0 0 32 VBottom 2
WINDOW 3 32 32 VTop 2
SYMATTR InstName C4
SYMATTR Value 1.453µ
SYMBOL res -304 1104 R0
SYMATTR InstName hie1
SYMATTR Value 4386
SYMBOL cap -128 1136 R0
SYMATTR InstName Cp1
SYMATTR Value 31.3p
SYMBOL cap 16 1056 R90
WINDOW 0 0 32 VBottom 2
WINDOW 3 32 32 VTop 2
SYMATTR InstName Cu1
SYMATTR Value 5p
SYMBOL res -512 1104 R0
SYMATTR InstName Rb1
SYMATTR Value 17.5k
SYMBOL res -720 1056 R90
WINDOW 0 0 56 VBottom 2
WINDOW 3 32 56 VTop 2
SYMATTR InstName Rs
SYMATTR Value 50
SYMBOL voltage -912 1136 R0
WINDOW 123 24 124 Left 2
WINDOW 39 0 0 Left 0
SYMATTR Value2 AC 1
SYMATTR InstName V3
SYMATTR Value ""
SYMBOL res -128 1440 R0
SYMATTR InstName Re1
SYMATTR Value 497
SYMBOL cap 0 1456 R0
SYMATTR InstName Ce1
SYMATTR Value 42µ
SYMBOL res 352 1248 R180
WINDOW 0 36 76 Left 2
WINDOW 3 36 40 Left 2
SYMATTR InstName Rc1
SYMATTR Value 5.5k
SYMBOL res 640 1136 R0
SYMATTR InstName Rb2
SYMATTR Value 15.9k
SYMBOL res 800 1104 R0
SYMATTR InstName hie2
SYMATTR Value 2924
SYMBOL cap 976 1136 R0
SYMATTR InstName Cp2
SYMATTR Value 49.3p
SYMBOL cap 1120 1056 R90
WINDOW 0 0 32 VBottom 2
WINDOW 3 32 32 VTop 2
SYMATTR InstName Cu2
SYMATTR Value 5p
SYMBOL res 976 1536 R0
SYMATTR InstName Re2_2
SYMATTR Value 63
SYMBOL cap 1104 1552 R0
SYMATTR InstName Ce2
SYMATTR Value 18µ
SYMBOL res 1472 1248 R180
WINDOW 0 36 76 Left 2
WINDOW 3 36 40 Left 2
SYMATTR InstName Rc2
SYMATTR Value 4000
SYMBOL res 1808 1136 R0
SYMATTR InstName RL
SYMATTR Value 3.9k
SYMBOL cap -560 1056 R90
WINDOW 0 0 32 VBottom 2
WINDOW 3 32 32 VTop 2
SYMATTR InstName Ci1
SYMATTR Value 3µ
SYMBOL cap 608 1056 R90
WINDOW 0 0 32 VBottom 2
WINDOW 3 32 32 VTop 2
SYMATTR InstName Co1
SYMATTR Value 5.5µ
SYMBOL cap 1696 1056 R90
WINDOW 0 0 32 VBottom 2
WINDOW 3 32 32 VTop 2
SYMATTR InstName Co2
SYMATTR Value 3.03µ
SYMBOL voltage -3616 1696 R0
WINDOW 123 0 0 Left 0
WINDOW 39 0 0 Left 0
SYMATTR InstName V4
SYMATTR Value SINE(0 0.004 10k)
SYMBOL cap -1872 1936 R0
SYMATTR InstName C6
SYMATTR Value 18µ
SYMBOL cap -2560 1488 R0
SYMATTR InstName C7
SYMATTR Value 6.42n
SYMBOL res -1984 1696 R0
SYMATTR InstName R10
SYMATTR Value 600
SYMBOL cap 416 1168 R0
SYMATTR InstName CL1
SYMATTR Value 6.42n
SYMBOL res 976 1328 R0
SYMATTR InstName Re2_1
SYMATTR Value 600
SYMBOL voltage -288 1200 R0
SYMATTR InstName V5
SYMATTR Value 0
SYMBOL voltage 816 1200 R0
SYMATTR InstName V6
SYMATTR Value 0
SYMBOL f 176 1168 R0
SYMATTR InstName F1
SYMATTR Value 150
SYMATTR SpiceModel V5
SYMBOL f 1280 1168 R0
SYMATTR InstName F2
SYMATTR Value 150
SYMATTR SpiceModel V6
SYMBOL e2 -1552 1872 R90
SYMATTR InstName E1
SYMATTR Value 0.002
SYMBOL npn 3040 1440 R0
SYMATTR InstName Q5
SYMATTR Value BC368HF
SYMBOL res 3088 1280 R0
SYMATTR InstName R11
SYMATTR Value 600
SYMBOL res 2864 1280 R0
SYMATTR InstName R12
SYMATTR Value 14.45k
SYMBOL res 2864 1616 R0
SYMATTR InstName R24
SYMATTR Value 4.5k
SYMBOL res 3088 1856 R0
SYMATTR InstName R25
SYMATTR Value 184
SYMBOL cap 3248 1888 R0
SYMATTR InstName C9
SYMATTR Value 103µ
SYMBOL cap 2768 1472 R90
WINDOW 0 0 32 VBottom 2
WINDOW 3 32 32 VTop 2
SYMATTR InstName C14
SYMATTR Value 99µ
SYMBOL res 2624 1472 R90
WINDOW 0 0 56 VBottom 2
WINDOW 3 32 56 VTop 2
SYMATTR InstName R26
SYMATTR Value 50
SYMBOL voltage 2448 1552 R0
WINDOW 123 24 124 Left 2
WINDOW 39 0 0 Left 0
SYMATTR Value2 AC 1
SYMATTR InstName V7
SYMATTR Value ""
SYMBOL cap 3424 1392 R90
WINDOW 0 0 32 VBottom 2
WINDOW 3 32 32 VTop 2
SYMATTR InstName C15
SYMATTR Value 17µ
SYMBOL npn 3728 1360 R0
SYMATTR InstName Q6
SYMATTR Value BC368HF
SYMBOL res 3776 1200 R0
SYMATTR InstName R27
SYMATTR Value 4000
SYMBOL res 3552 1200 R0
SYMATTR InstName R28
SYMATTR Value 106.6k
SYMBOL res 3552 1536 R0
SYMATTR InstName R29
SYMATTR Value 18.7k
SYMBOL res 3776 1728 R0
SYMATTR InstName R30
SYMATTR Value 562
SYMBOL res 4288 1376 R0
SYMATTR InstName R31
SYMATTR Value 3.9k
SYMBOL cap 4016 1312 R90
WINDOW 0 0 32 VBottom 2
WINDOW 3 32 32 VTop 2
SYMATTR InstName C16
SYMATTR Value 22µ
SYMBOL cap 3888 1760 R0
SYMATTR InstName C17
SYMATTR Value 16µ
SYMBOL cap 3200 1312 R0
SYMATTR InstName C18
SYMATTR Value 45n
SYMBOL res 3776 1520 R0
SYMATTR InstName R32
SYMATTR Value 100
SYMBOL res 3088 1632 R0
SYMATTR InstName R34
SYMATTR Value 14
SYMBOL res 3520 2112 R90
WINDOW 0 0 56 VBottom 2
WINDOW 3 32 56 VTop 2
SYMATTR InstName R35
SYMATTR Value 4433
SYMBOL npn 5024 1408 R0
SYMATTR InstName Q3
SYMATTR Value BC368HF
SYMBOL res 5072 1248 R0
SYMATTR InstName R13
SYMATTR Value 600
SYMBOL res 4848 1248 R0
SYMATTR InstName R14
SYMATTR Value 14.45k
SYMBOL res 4848 1584 R0
SYMATTR InstName R15
SYMATTR Value 4.5k
SYMBOL res 5072 1824 R0
SYMATTR InstName R16
SYMATTR Value 184
SYMBOL cap 5232 1856 R0
SYMATTR InstName C5
SYMATTR Value 103µ
SYMBOL cap 4752 1440 R90
WINDOW 0 0 32 VBottom 2
WINDOW 3 32 32 VTop 2
SYMATTR InstName C8
SYMATTR Value 99µ
SYMBOL res 4608 1440 R90
WINDOW 0 0 56 VBottom 2
WINDOW 3 32 56 VTop 2
SYMATTR InstName R17
SYMATTR Value 50
SYMBOL voltage 4432 1520 R0
WINDOW 123 24 124 Left 2
WINDOW 39 0 0 Left 0
SYMATTR Value2 AC 1
SYMATTR InstName V8
SYMATTR Value ""
SYMBOL cap 5408 1360 R90
WINDOW 0 0 32 VBottom 2
WINDOW 3 32 32 VTop 2
SYMATTR InstName C10
SYMATTR Value 17µ
SYMBOL npn 5712 1328 R0
SYMATTR InstName Q4
SYMATTR Value BC368HF
SYMBOL res 5760 1168 R0
SYMATTR InstName R18
SYMATTR Value 4000
SYMBOL res 5536 1168 R0
SYMATTR InstName R19
SYMATTR Value 106.6k
SYMBOL res 5536 1504 R0
SYMATTR InstName R20
SYMATTR Value 18.7k
SYMBOL res 5760 1696 R0
SYMATTR InstName R21
SYMATTR Value 562
SYMBOL res 6272 1344 R0
SYMATTR InstName R22
SYMATTR Value 3.9k
SYMBOL cap 6000 1280 R90
WINDOW 0 0 32 VBottom 2
WINDOW 3 32 32 VTop 2
SYMATTR InstName C11
SYMATTR Value 22µ
SYMBOL cap 5872 1728 R0
SYMATTR InstName C12
SYMATTR Value 16µ
SYMBOL cap 5184 1280 R0
SYMATTR InstName C13
SYMATTR Value 44n
SYMBOL res 5760 1488 R0
SYMATTR InstName R23
SYMATTR Value 100
SYMBOL res 5072 1600 R0
SYMATTR InstName R33
SYMATTR Value 14
SYMBOL res 3696 2112 R90
WINDOW 0 0 56 VBottom 2
WINDOW 3 32 56 VTop 2
SYMATTR InstName R36
SYMATTR Value 4433
SYMBOL res 4672 -752 R90
WINDOW 0 0 56 VBottom 2
WINDOW 3 32 56 VTop 2
SYMATTR InstName R54
SYMATTR Value 50
SYMBOL voltage 4496 -672 R0
WINDOW 123 24 124 Left 2
WINDOW 39 0 0 Left 0
SYMATTR Value2 AC 1
SYMATTR InstName V10
SYMATTR Value ""
SYMBOL npn 5776 -864 R0
SYMATTR InstName Q10
SYMATTR Value BC368HF
SYMBOL res 5824 -1024 R0
SYMATTR InstName R55
SYMATTR Value 4000
SYMBOL res 5600 -1024 R0
SYMATTR InstName R56
SYMATTR Value 106.6k
SYMBOL res 5600 -688 R0
SYMATTR InstName R57
SYMATTR Value 18.7k
SYMBOL res 5824 -672 R0
SYMATTR InstName R58
SYMATTR Value 662
SYMBOL res 6336 -848 R0
SYMATTR InstName R59
SYMATTR Value 3.9k
SYMBOL cap 6064 -912 R90
WINDOW 0 0 32 VBottom 2
WINDOW 3 32 32 VTop 2
SYMATTR InstName C28
SYMATTR Value 1.45µ
SYMBOL cap 5936 -640 R0
SYMATTR InstName C29
SYMATTR Value 21µ
SYMBOL npn 5088 -784 R0
SYMATTR InstName Q9
SYMATTR Value BC368HF
SYMBOL res 5136 -944 R0
SYMATTR InstName R40
SYMATTR Value 10.15k
SYMBOL res 4912 -944 R0
SYMATTR InstName R50
SYMATTR Value 170k
SYMBOL res 4912 -624 R0
SYMATTR InstName R51
SYMATTR Value 17k
SYMBOL cap 4816 -752 R90
WINDOW 0 0 32 VBottom 2
WINDOW 3 32 32 VTop 2
SYMATTR InstName C19
SYMATTR Value 8.4µ
SYMBOL cap 5472 -832 R90
WINDOW 0 0 32 VBottom 2
WINDOW 3 32 32 VTop 2
SYMATTR InstName C25
SYMATTR Value 840n
SYMBOL cap 5248 -912 R0
SYMATTR InstName C26
SYMATTR Value 13n
SYMBOL res 5136 -608 R0
SYMATTR InstName R52
SYMATTR Value 350
SYMBOL res 3504 -112 R90
WINDOW 0 0 56 VBottom 2
WINDOW 3 32 56 VTop 2
SYMATTR InstName R48
SYMATTR Value 20k
SYMBOL res 2528 -592 R90
WINDOW 0 0 56 VBottom 2
WINDOW 3 32 56 VTop 2
SYMATTR InstName R37
SYMATTR Value 50
SYMBOL voltage 2352 -512 R0
WINDOW 123 24 124 Left 2
WINDOW 39 0 0 Left 0
SYMATTR Value2 AC 1
SYMATTR InstName V9
SYMATTR Value ""
SYMBOL npn 3632 -704 R0
SYMATTR InstName Q7
SYMATTR Value BC368HF
SYMBOL res 3680 -864 R0
SYMATTR InstName R38
SYMATTR Value 4000
SYMBOL res 3456 -864 R0
SYMATTR InstName R39
SYMATTR Value 106.6k
SYMBOL res 3456 -528 R0
SYMATTR InstName R41
SYMATTR Value 18.7k
SYMBOL res 3680 -512 R0
SYMATTR InstName R42
SYMATTR Value 662
SYMBOL res 4192 -688 R0
SYMATTR InstName R43
SYMATTR Value 3.9k
SYMBOL cap 3920 -752 R90
WINDOW 0 0 32 VBottom 2
WINDOW 3 32 32 VTop 2
SYMATTR InstName C20
SYMATTR Value 1.45µ
SYMBOL cap 3792 -480 R0
SYMATTR InstName C21
SYMATTR Value 21µ
SYMBOL npn 2944 -624 R0
SYMATTR InstName Q8
SYMATTR Value BC368HF
SYMBOL res 2992 -784 R0
SYMATTR InstName R44
SYMATTR Value 10.15k
SYMBOL res 2768 -784 R0
SYMATTR InstName R45
SYMATTR Value 170k
SYMBOL res 2768 -464 R0
SYMATTR InstName R46
SYMATTR Value 17k
SYMBOL cap 2672 -592 R90
WINDOW 0 0 32 VBottom 2
WINDOW 3 32 32 VTop 2
SYMATTR InstName C22
SYMATTR Value 8.4µ
SYMBOL cap 3328 -672 R90
WINDOW 0 0 32 VBottom 2
WINDOW 3 32 32 VTop 2
SYMATTR InstName C23
SYMATTR Value 840n
SYMBOL cap 3104 -752 R0
SYMATTR InstName C24
SYMATTR Value 13n
SYMBOL res 2992 -448 R0
SYMATTR InstName R47
SYMATTR Value 350
SYMBOL res -3872 -512 R90
WINDOW 0 0 56 VBottom 2
WINDOW 3 32 56 VTop 2
SYMATTR InstName R49
SYMATTR Value 50
SYMBOL voltage -4048 -432 R0
WINDOW 123 24 124 Left 2
WINDOW 39 0 0 Left 0
SYMATTR Value2 AC 1
SYMATTR InstName V11
SYMATTR Value ""
SYMBOL npn -2768 -624 R0
SYMATTR InstName Q11
SYMATTR Value BC368HF
SYMBOL res -2720 -784 R0
SYMATTR InstName R53
SYMATTR Value 4000
SYMBOL res -2944 -784 R0
SYMATTR InstName R60
SYMATTR Value 106.6k
SYMBOL res -2944 -448 R0
SYMATTR InstName R61
SYMATTR Value 18.7k
SYMBOL res -2720 -432 R0
SYMATTR InstName R62
SYMATTR Value 662
SYMBOL res -2208 -608 R0
SYMATTR InstName R63
SYMATTR Value 3.9k
SYMBOL cap -2480 -672 R90
WINDOW 0 0 32 VBottom 2
WINDOW 3 32 32 VTop 2
SYMATTR InstName C27
SYMATTR Value 1.45µ
SYMBOL cap -2608 -400 R0
SYMATTR InstName C30
SYMATTR Value 48µ
SYMBOL npn -3456 -544 R0
SYMATTR InstName Q12
SYMATTR Value BC368HF
SYMBOL res -3408 -704 R0
SYMATTR InstName R64
SYMATTR Value 525
SYMBOL res -3632 -704 R0
SYMATTR InstName R65
SYMATTR Value 16.38k
SYMBOL res -3632 -384 R0
SYMATTR InstName R66
SYMATTR Value 2380
SYMBOL cap -3728 -512 R90
WINDOW 0 0 32 VBottom 2
WINDOW 3 32 32 VTop 2
SYMATTR InstName C31
SYMATTR Value 58µ
SYMBOL cap -3072 -592 R90
WINDOW 0 0 32 VBottom 2
WINDOW 3 32 32 VTop 2
SYMATTR InstName C32
SYMATTR Value 30µ
SYMBOL cap -3296 -672 R0
SYMATTR InstName C33
SYMATTR Value 100n
SYMBOL res -3408 -368 R0
SYMATTR InstName R67
SYMATTR Value 70
SYMBOL res -5040 128 R90
WINDOW 0 0 56 VBottom 2
WINDOW 3 32 56 VTop 2
SYMATTR InstName R68
SYMATTR Value 5k
SYMBOL res -6016 -352 R90
WINDOW 0 0 56 VBottom 2
WINDOW 3 32 56 VTop 2
SYMATTR InstName R69
SYMATTR Value 50
SYMBOL voltage -6192 -272 R0
WINDOW 123 24 124 Left 2
WINDOW 39 0 0 Left 0
SYMATTR Value2 AC 1
SYMATTR InstName V12
SYMATTR Value ""
SYMBOL npn -4912 -464 R0
SYMATTR InstName Q13
SYMATTR Value BC368HF
SYMBOL res -4864 -624 R0
SYMATTR InstName R70
SYMATTR Value 4000
SYMBOL res -5088 -624 R0
SYMATTR InstName R71
SYMATTR Value 106.6k
SYMBOL res -5088 -288 R0
SYMATTR InstName R72
SYMATTR Value 18.7k
SYMBOL res -4864 -272 R0
SYMATTR InstName R73
SYMATTR Value 662
SYMBOL res -4352 -448 R0
SYMATTR InstName R74
SYMATTR Value 3.9k
SYMBOL cap -4624 -512 R90
WINDOW 0 0 32 VBottom 2
WINDOW 3 32 32 VTop 2
SYMATTR InstName C34
SYMATTR Value 1.45µ
SYMBOL cap -4752 -240 R0
SYMATTR InstName C35
SYMATTR Value 48µ
SYMBOL npn -5600 -384 R0
SYMATTR InstName Q14
SYMATTR Value BC368HF
SYMBOL res -5552 -544 R0
SYMATTR InstName R75
SYMATTR Value 525
SYMBOL res -5776 -544 R0
SYMATTR InstName R76
SYMATTR Value 16.38k
SYMBOL res -5776 -224 R0
SYMATTR InstName R77
SYMATTR Value 2380
SYMBOL cap -5872 -352 R90
WINDOW 0 0 32 VBottom 2
WINDOW 3 32 32 VTop 2
SYMATTR InstName C36
SYMATTR Value 58µ
SYMBOL cap -5216 -432 R90
WINDOW 0 0 32 VBottom 2
WINDOW 3 32 32 VTop 2
SYMATTR InstName C37
SYMATTR Value 30µ
SYMBOL cap -5440 -512 R0
SYMATTR InstName C38
SYMATTR Value 100n
SYMBOL res -5552 -208 R0
SYMATTR InstName R78
SYMATTR Value 70
TEXT -1096 -1152 Left 2 !.MODEL BC368 NPN(\n+       AF= 1.00E+00    BF= 1.61E+02    BR= 3.66E+00   CJC= 1.37E-10\n+      CJE= 2.52E-10   CJS= 0.00E+00    EG= 1.11E+00    FC= 5.00E-01\n+      IKF= 7.74E+00   IKR= 1.00E+00   IRB= 6.95E-02    IS= 9.77E-14\n+      ISC= 4.11E-14   ISE= 1.49E-16   ITF= 1.00E+01    KF= 0.00E+00\n+      MJC= 4.87E-01   MJE= 4.11E-01   MJS= 3.30E-01    NC= 1.02E+00\n+       NE= 1.01E+00    NF= 9.64E-01    NR= 1.23E+00   PTF= 0.00E+00\n+       RB= 1.91E+01   RBM= 3.03E+00    RC= 2.06E-01    RE= 1.01E-02\n+       TF= 1.38E-09    TR= 0.00E+00   VAF= 5.63E+02   VAR= 3.49E+01\n+      VJC= 3.00E-01   VJE= 3.00E-01   VJS= 7.50E-01   VTF= 9.99E+05\n+     XCJC= 1.00E+00   XTB= 0.00E+00   XTF= 3.26E+01   XTI= 3.00E+00)
TEXT -1088 -816 Left 2 ;.tran 0 0.07 0.05 0.1u
TEXT -160 -1144 Left 2 !.MODEL BC368HF NPN(\n+       AF= 1.00E+00    BF= 1.61E+02    BR= 3.66E+00   CJC= 5p\n+      CJE= 46p   CJS= 0.00E+00    EG= 1.11E+00    FC= 5.00E-01\n+      IKF= 7.74E+00   IKR= 1.00E+00   IRB= 6.95E-02    IS= 9.77E-14\n+      ISC= 4.11E-14   ISE= 1.49E-16   ITF= 1.00E+01    KF= 0.00E+00\n+      MJC= 4.87E-01   MJE= 4.11E-01   MJS= 3.30E-01    NC= 1.02E+00\n+       NE= 1.01E+00    NF= 9.64E-01    NR= 1.23E+00   PTF= 0.00E+00\n+       RB= 1.91E+01   RBM= 3.03E+00    RC= 2.06E-01    RE= 1.01E-02\n+       TF= 6E-9    TR= 0.00E+00   VAF= 5.63E+02   VAR= 3.49E+01\n+      VJC= 3.00E-01   VJE= 3.00E-01   VJS= 7.50E-01   VTF= 9.99E+05\n+     XCJC= 1.00E+00   XTB= 0.00E+00   XTF= 3.26E+01   XTI= 3.00E+00)
TEXT -1088 -688 Left 2 !.ac dec 10000 1 100Meg
TEXT -3952 1152 Left 2 ;Funcionando\n \n    print("----- Primeiro Estagio ------")\n    Avs1 = projeto_EC(\n        Ic=1e-3,\n        Ve=0.5,\n        Vce=6,\n        Rl = 1.383e4,\n        hfe=170,\n        fH = 6.3e3#20e6\n    )\n    print("----- Segundo Estagio ------")\n    Avs2 = projeto_EC(\n        Ic=1.5e-3,\n        Ve=1,\n        Vce=5,\n        Rs = 0.000000001,\n        fH= 6.3e3,#6.3e3,\n        Re_dc=600,\n        hfe=170\n    )
TEXT 2288 752 Left 2 ;print("----- Primeiro Estagio ------")\n    Avs1 = projeto_EC(\n        Ic=10e-3,\n        Ve=2,\n        Vce=4,\n        Rl = 8866,\n        Rs = 50,\n        hfe=170,\n        Re_dc = 14,\n        fH = 6.3e3,#20e6\n        fL=100\n    )\n    print("----- Segundo Estagio ------")\n    Avs2 = projeto_EC(\n        Ic=1.5e-3,\n        Ve=1,\n        Vce=5,\n        Rs = 0.000000001,\n        fH= 6.3e3,#6.3e3,\n        fL=100,\n        Re_dc=100,\n        hfe=170\n    )
TEXT 2232 -1400 Left 2 ;Avs1 = projeto_EC(\n        Ic=1e-3,\n        Ve=0.360,\n        Vce=1.5,\n        Rl=2470,\n        Rs=50,\n        hfe=170,\n        Re_dc=350,\n        fH=6.3e3,\n        fL=15\n    )\n    print("----- Segundo Estagio ------")\n    Avs2 = projeto_EC(\n        Ic=1.5e-3,\n        Ve=1,\n        Vce=5,\n        Rs = 10.15e3,#0.000000001,\n        fH= 6.3e3,#6.3e3,\n        fL=150,\n        Re_dc=0,\n        hfe=170\n    )
TEXT 2856 -1376 Left 2 ;+ Realimentaçăo funcionando\n+ Ganho em malha aberta 500\n- fT abaixo do especificado\n- Zin acima do especificado
TEXT -6312 -1160 Left 2 ;Avs1 = projeto_EC(\n        Ic=10e-3,\n        Ve=0.750,\n        Vce=6,\n        Rl=2470,\n        Rs=50,\n        hfe=170,\n        Re_dc=70,\n        fH=5e3,\n        fL=15\n    )\n    print("----- Segundo Estagio ------")\n    Avs2 = projeto_EC(\n        Ic=1.5e-3,\n        Ve=1,\n        Vce=5,\n        Rs = 525,#0.000000001,\n        fH= 6.3e3,#6.3e3,\n        fL=150,\n        Re_dc=0,\n        hfe=170\n    )
TEXT -5688 -1136 Left 2 ;+ Realimentaçăo funcionando\n+ Ganho em malha aberta 500\n+ fT atende o especificado\n+ Zin atende o especificado
RECTANGLE Normal -4000 2480 -1152 1072 2
RECTANGLE Normal 2176 2432 6704 672 2
RECTANGLE Normal 2192 320 6720 -1440 2
RECTANGLE Normal -6352 560 -1824 -1200 2
