Version 4.1
SHEET 1 1704 1364
WIRE 784 -144 784 -208
WIRE 784 -144 672 -144
WIRE 896 -144 784 -144
WIRE 672 -80 672 -144
WIRE 896 -80 896 -144
WIRE 96 -64 96 -128
WIRE 96 -64 -16 -64
WIRE 208 -64 96 -64
WIRE -304 -16 -304 -48
WIRE -16 0 -16 -64
WIRE 208 0 208 -64
WIRE 896 32 896 0
WIRE 1008 32 896 32
WIRE 1152 32 1072 32
WIRE 896 64 896 32
WIRE 1152 96 1152 32
WIRE 208 112 208 80
WIRE 368 112 208 112
WIRE 672 112 672 0
WIRE 672 112 432 112
WIRE 832 112 672 112
WIRE 208 144 208 112
WIRE -368 192 -448 192
WIRE -192 192 -288 192
WIRE -16 192 -16 80
WIRE -16 192 -128 192
WIRE 144 192 -16 192
WIRE 1152 224 1152 176
WIRE 672 256 672 112
WIRE -448 272 -448 192
WIRE 896 272 896 160
WIRE 208 288 208 240
WIRE 368 288 208 288
WIRE -16 336 -16 192
WIRE 208 352 208 288
WIRE 368 368 368 288
WIRE -448 384 -448 352
WIRE 528 384 528 352
WIRE 672 416 672 336
WIRE 896 416 896 352
WIRE -16 496 -16 416
WIRE 208 496 208 432
WIRE 368 496 368 432
WIRE -656 816 -752 816
WIRE -464 816 -576 816
WIRE -336 816 -400 816
WIRE -128 816 -336 816
WIRE 48 816 -128 816
WIRE 112 816 48 816
WIRE 336 816 176 816
WIRE 512 816 336 816
WIRE 560 816 512 816
WIRE 672 816 624 816
WIRE 832 816 672 816
WIRE 1008 816 832 816
WIRE 1072 816 1008 816
WIRE 1296 816 1136 816
WIRE 1472 816 1296 816
WIRE 1520 816 1472 816
WIRE 1632 816 1584 816
WIRE 48 848 48 816
WIRE 112 848 48 848
WIRE 1008 848 1008 816
WIRE 1072 848 1008 848
WIRE -336 864 -336 816
WIRE -128 864 -128 816
WIRE 832 864 832 816
WIRE 48 880 48 848
WIRE 1008 880 1008 848
WIRE -752 896 -752 816
WIRE 512 896 512 816
WIRE 672 896 672 816
WIRE 1472 896 1472 816
WIRE 1632 896 1632 816
WIRE 336 912 336 816
WIRE 1296 912 1296 816
WIRE 112 928 112 848
WIRE 288 928 112 928
WIRE 1072 928 1072 848
WIRE 1248 928 1072 928
WIRE 48 976 48 944
WIRE 288 976 48 976
WIRE 1008 976 1008 944
WIRE 1248 976 1008 976
WIRE -128 1040 -128 944
WIRE 48 1040 48 976
WIRE 48 1040 -128 1040
WIRE 336 1040 336 992
WIRE 336 1040 48 1040
WIRE 832 1040 832 944
WIRE 1008 1040 1008 976
WIRE 1008 1040 832 1040
WIRE 1296 1040 1296 992
WIRE 1296 1040 1008 1040
WIRE -752 1088 -752 976
WIRE -336 1088 -336 944
WIRE 512 1104 512 976
WIRE 672 1104 672 976
WIRE 1472 1104 1472 976
WIRE 1632 1104 1632 976
WIRE 48 1120 48 1040
WIRE 176 1120 48 1120
WIRE 1008 1120 1008 1040
WIRE 1136 1120 1008 1120
WIRE 48 1200 48 1120
WIRE 176 1200 176 1120
WIRE 1008 1200 1008 1120
WIRE 1136 1200 1136 1120
WIRE 48 1344 48 1280
WIRE 176 1344 176 1264
WIRE 1008 1344 1008 1280
WIRE 1136 1344 1136 1264
FLAG 208 496 0
FLAG -16 496 0
FLAG -304 -16 0
FLAG 96 -128 Vcc
IOPIN 96 -128 In
FLAG -304 -128 Vcc
IOPIN -304 -128 In
FLAG 368 496 0
FLAG -448 384 0
FLAG 896 416 0
FLAG 672 416 0
FLAG 784 -208 Vcc
IOPIN 784 -208 In
FLAG 1152 224 0
FLAG 528 384 0
FLAG -752 1088 0
FLAG -336 1088 0
FLAG 48 1344 0
FLAG 176 1344 0
FLAG 512 1104 0
FLAG 672 1104 0
FLAG 1008 1344 0
FLAG 1136 1344 0
FLAG 1472 1104 0
FLAG 1632 1104 0
SYMBOL npn 144 144 R0
SYMATTR InstName Q1
SYMATTR Value BC368
SYMBOL res 192 -16 R0
SYMATTR InstName R1
SYMATTR Value 5500
SYMBOL res -32 -16 R0
SYMATTR InstName R2
SYMATTR Value 148k
SYMBOL res -32 320 R0
SYMATTR InstName 18.17k
SYMATTR Value 17.2k
SYMBOL res 192 336 R0
SYMATTR InstName R4
SYMATTR Value 496
SYMBOL voltage -304 -144 R0
SYMATTR InstName V1
SYMATTR Value 12
SYMBOL cap 352 368 R0
SYMATTR InstName C1
SYMATTR Value 43Ą
SYMBOL cap -128 176 R90
WINDOW 0 0 32 VBottom 2
WINDOW 3 32 32 VTop 2
SYMATTR InstName C3
SYMATTR Value 3.3Ą
SYMBOL res -272 176 R90
WINDOW 0 0 56 VBottom 2
WINDOW 3 32 56 VTop 2
SYMATTR InstName R3
SYMATTR Value 50
SYMBOL voltage -448 256 R0
WINDOW 123 24 124 Left 2
WINDOW 39 0 0 Left 0
SYMATTR InstName V2
SYMATTR Value ""
SYMATTR Value2 AC 1
SYMBOL cap 432 96 R90
WINDOW 0 0 32 VBottom 2
WINDOW 3 32 32 VTop 2
SYMATTR InstName C2
SYMATTR Value 1.2Ą
SYMBOL npn 832 64 R0
SYMATTR InstName Q2
SYMATTR Value BC368
SYMBOL res 880 -96 R0
SYMATTR InstName R6
SYMATTR Value 200
SYMBOL res 656 -96 R0
SYMATTR InstName R7
SYMATTR Value 11.4k
SYMBOL res 656 240 R0
SYMATTR InstName R8
SYMATTR Value 5.5k
SYMBOL res 880 256 R0
SYMATTR InstName R9
SYMATTR Value 298
SYMBOL res 1136 80 R0
SYMATTR InstName R5
SYMATTR Value 3.9k
SYMBOL res 512 256 R0
SYMATTR InstName R10
SYMATTR Value 1k
SYMBOL cap 1072 16 R90
WINDOW 0 0 32 VBottom 2
WINDOW 3 32 32 VTop 2
SYMATTR InstName C4
SYMATTR Value 3Ą
SYMBOL res -144 848 R0
SYMATTR InstName hie1
SYMATTR Value 3870
SYMBOL cap 32 880 R0
SYMATTR InstName Cp1
SYMATTR Value 46.4p
SYMBOL cap 176 800 R90
WINDOW 0 0 32 VBottom 2
WINDOW 3 32 32 VTop 2
SYMATTR InstName Cu1
SYMATTR Value 5p
SYMBOL res -352 848 R0
SYMATTR InstName Rb1
SYMATTR Value 15.5k
SYMBOL res -560 800 R90
WINDOW 0 0 56 VBottom 2
WINDOW 3 32 56 VTop 2
SYMATTR InstName Rs
SYMATTR Value 50
SYMBOL voltage -752 880 R0
WINDOW 123 24 124 Left 2
WINDOW 39 0 0 Left 0
SYMATTR InstName V3
SYMATTR Value ""
SYMATTR Value2 AC 1
SYMBOL g 336 896 R0
SYMATTR InstName G1
SYMATTR Value -0.0388
SYMBOL res 32 1184 R0
SYMATTR InstName Re1
SYMATTR Value 496
SYMBOL cap 160 1200 R0
SYMATTR InstName Ce1
SYMATTR Value 42Ą
SYMBOL res 528 992 R180
WINDOW 0 36 76 Left 2
WINDOW 3 36 40 Left 2
SYMATTR InstName Rc1
SYMATTR Value 5.5k
SYMBOL res 656 880 R0
SYMATTR InstName Rb2
SYMATTR Value 3697
SYMBOL res 816 848 R0
SYMATTR InstName hie2
SYMATTR Value 387
SYMBOL cap 992 880 R0
SYMATTR InstName Cp2
SYMATTR Value 509p
SYMBOL cap 1136 800 R90
WINDOW 0 0 32 VBottom 2
WINDOW 3 32 32 VTop 2
SYMATTR InstName Cu2
SYMATTR Value 5p
SYMBOL g 1296 896 R0
SYMATTR InstName G2
SYMATTR Value -0.3876
SYMBOL res 992 1184 R0
SYMATTR InstName Re2
SYMATTR Value 298
SYMBOL cap 1120 1200 R0
SYMATTR InstName Ce2
SYMATTR Value 368Ą
SYMBOL res 1488 992 R180
WINDOW 0 36 76 Left 2
WINDOW 3 36 40 Left 2
SYMATTR InstName Rc2
SYMATTR Value 200
SYMBOL res 1616 880 R0
SYMATTR InstName RL
SYMATTR Value 3.9k
SYMBOL cap -400 800 R90
WINDOW 0 0 32 VBottom 2
WINDOW 3 32 32 VTop 2
SYMATTR InstName Ci1
SYMATTR Value 3.3Ą
SYMBOL cap 624 800 R90
WINDOW 0 0 32 VBottom 2
WINDOW 3 32 32 VTop 2
SYMATTR InstName Co1
SYMATTR Value 1.2Ą
SYMBOL cap 1584 800 R90
WINDOW 0 0 32 VBottom 2
WINDOW 3 32 32 VTop 2
SYMATTR InstName Co2
SYMATTR Value 3.03Ą
TEXT -1128 -768 Left 2 !.MODEL BC368 NPN(\n+       AF= 1.00E+00    BF= 1.61E+02    BR= 3.66E+00   CJC= 1.37E-10\n+      CJE= 2.52E-10   CJS= 0.00E+00    EG= 1.11E+00    FC= 5.00E-01\n+      IKF= 7.74E+00   IKR= 1.00E+00   IRB= 6.95E-02    IS= 9.77E-14\n+      ISC= 4.11E-14   ISE= 1.49E-16   ITF= 1.00E+01    KF= 0.00E+00\n+      MJC= 4.87E-01   MJE= 4.11E-01   MJS= 3.30E-01    NC= 1.02E+00\n+       NE= 1.01E+00    NF= 9.64E-01    NR= 1.23E+00   PTF= 0.00E+00\n+       RB= 1.91E+01   RBM= 3.03E+00    RC= 2.06E-01    RE= 1.01E-02\n+       TF= 1.38E-09    TR= 0.00E+00   VAF= 5.63E+02   VAR= 3.49E+01\n+      VJC= 3.00E-01   VJE= 3.00E-01   VJS= 7.50E-01   VTF= 9.99E+05\n+     XCJC= 1.00E+00   XTB= 0.00E+00   XTF= 3.26E+01   XTI= 3.00E+00)
TEXT -1120 -432 Left 2 ;.tran 0 1 0 1m
TEXT -168 -768 Left 2 !.MODEL BC368_ NPN(\n+       AF= 1.00E+00    BF= 1.5E+02    BR= 3.66E+00   CJC= 1.37E-10\n+      CJE= 2.52E-10   CJS= 0.00E+00    EG= 1.11E+00    FC= 5.00E-01\n+      IKF= 7.74E+00   IKR= 1.00E+00   IRB= 6.95E-02    IS= 9.77E-14\n+      ISC= 4.11E-14   ISE= 1.49E-16   ITF= 1.00E+01    KF= 0.00E+00\n+      MJC= 4.87E-01   MJE= 4.11E-01   MJS= 3.30E-01    NC= 1.02E+00\n+       NE= 1.01E+00    NF= 9.64E-01    NR= 1.23E+00   PTF= 0.00E+00\n+       RB= 1.91E+01   RBM= 3.03E+00    RC= 2.06E-01    RE= 1.01E-02\n+       TF= 1.38E-09    TR= 0.00E+00   VAF= 5.63E+02   VAR= 3.49E+01\n+      VJC= 3.00E-01   VJE= 3.00E-01   VJS= 7.50E-01   VTF= 9.99E+05\n+     XCJC= 1.00E+00   XTB= 0.00E+00   XTF= 3.26E+01   XTI= 3.00E+00)
TEXT 408 -232 Left 2 !.ac lin 100000 0.1 10Meg
